Circuit: * Z:\home\winson\CanSat\UCSD-Cansat-2016-17\hardware\sim\Draft1.asc

Direct Newton iteration for .op point succeeded.

Date: Sat Nov 12 11:50:28 2016
Total elapsed time: 0.102 seconds.

tnom = 27
temp = 27
method = modified trap
totiter = 2106
traniter = 2088
tranpoints = 1045
accept = 1045
rejected = 0
matrix size = 8
fillins = 3
solver = Normal
Matrix Compiler1: 600 bytes object code size  0.6/0.4/[0.3]
Matrix Compiler2:      54 opcodes  0.4/[0.4]/0.5


