Circuit: * Z:\home\winson\CanSat\UCSD-Cansat-2016-17\hardware\sim\sim1.asc

Direct Newton iteration failed to find .op point.  (Use ".option noopiter" to skip.)
Starting Gmin stepping
Gmin = 10
Gmin = 1.07374
Gmin = 0.115292
Gmin = 0.0123794
Gmin = 0.00132923
vernier = 0.5
vernier = 0.25
vernier = 0.125
Gmin = 0.00088881
vernier = 0.0625
vernier = 0.03125
vernier = 0.015625
vernier = 0.0078125
vernier = 0.00390625
vernier = 0.00195313
vernier = 0.000976563
vernier = 0.000488281
Gmin = 0
Gmin = 0
Gmin stepping failed

Starting source stepping with srcstepmethod=0
Could not converge to DC with sources off!
Starting source stepping with srcstepmethod=1
Source Step = 3.0303%
Source Step = 33.3333%
Source Step = 63.6364%
Source Step = 93.9394%
Source Step = 99.2661%
Source Step = 99.3016%
Source stepping failed

Pseudo Transient failed in finding the operating point.
Trouble finding operating point....skipping operating point for Transient analysis.

Date: Sat Nov 12 12:38:01 2016
Total elapsed time: 59.901 seconds.

tnom = 27
temp = 27
method = modified trap
totiter = 6300781
traniter = 8598
tranpoints = 3472
accept = 2920
rejected = 1332789
matrix size = 51
fillins = 36
solver = Normal
Matrix Compiler1: 3.32 KB object code size  1.2/0.6/[0.4]
Matrix Compiler2: off  [0.8]/1.1/1.3


