Circuit: * Z:\home\winson\CanSat\UCSD-Cansat-2016-17\hardware\sim\sim1.asc

Direct Newton iteration failed to find .op point.  (Use ".option noopiter" to skip.)
Starting Gmin stepping
Gmin = 10
vernier = 0.5
Gmin = 1.86414
vernier = 0.25
vernier = 0.125
vernier = 0.0625
vernier = 0.03125
Gmin = 1.82123
vernier = 0.015625
vernier = 0.0078125
vernier = 0.00390625
vernier = 0.00195313
vernier = 0.000976563
Gmin = 1.83501
vernier = 0.000488281
Gmin = 0
Gmin stepping failed

Starting source stepping with srcstepmethod=0
Could not converge to DC with sources off!
Starting source stepping with srcstepmethod=1
Could not converge to DC with sources off!
Pseudo Transient failed in finding the operating point.
Trouble finding operating point....skipping operating point for Transient analysis.

Date: Sat Nov 12 13:17:34 2016
Total elapsed time: 16.345 seconds.

tnom = 27
temp = 27
method = modified trap
totiter = 1392335
traniter = 3785
tranpoints = 1601
accept = 1471
rejected = 283722
matrix size = 58
fillins = 30
solver = Normal
Matrix Compiler1: 3.24 KB object code size  1.1/0.5/[0.4]
Matrix Compiler2: off  [0.6]/1.0/0.8


