Circuit: * Z:\home\winson\CanSat\UCSD-Cansat-2016-17\hardware\power\sim\sim1.asc

WARNING: Specified period is not longer than the sum of Trise, Tfall, and Ton for i1.  Increasing period to 2.101
Direct Newton iteration failed to find .op point.  (Use ".option noopiter" to skip.)
Starting Gmin stepping
Gmin = 10
Gmin = 1.07374
Gmin = 0.115292
Gmin = 0.0123794
Gmin = 0.00132923
vernier = 0.5
vernier = 0.25
vernier = 0.125
vernier = 0.0625
vernier = 0.03125
vernier = 0.015625
vernier = 0.0078125
vernier = 0.00390625
vernier = 0.00195313
vernier = 0.000976563
Gmin = 0.00166153
vernier = 0.000488281
Gmin = 0
Gmin stepping failed

Starting source stepping with srcstepmethod=0
Source Step = 3.0303%
Source Step = 28.0303%
Source Step = 35.6061%
Source Step = 37.3106%
Source Step = 39.2045%
Source Step = 41.0985%
Source Step = 42.9924%
Source Step = 44.8864%
vernier = 0.09375
Source Step = 45.7623%
Source Step = 46.4725%
Source Step = 47.1828%
Source Step = 47.893%
Source Step = 48.6032%
vernier = 0.0351563
Source Step = 49.5265%
Source Step = 50.1657%
Source Step = 50.4321%
Source Step = 50.6984%
Source Step = 50.9647%
Source Step = 51.2311%
vernier = 0.0131836
Source Step = 51.5373%
Source Step = 51.9368%
Source Step = 52.3364%
Source Step = 52.7359%
Source Step = 53.1354%
vernier = 0.0197754
Source Step = 53.5748%
Source Step = 54.1741%
Source Step = 54.3538%
Source Step = 54.5037%
Source Step = 54.6535%
Source Step = 54.8033%
Source Step = 54.9531%
vernier = 0.00741577
Source Step = 55.1553%
Source Step = 55.3801%
Source Step = 55.6048%
Source Step = 55.8295%
Source Step = 56.0542%
vernier = 0.0111237
Source Step = 56.3464%
Source Step = 56.6834%
Source Step = 57.0205%
Source Step = 57.3576%
Source Step = 57.6947%
vernier = 0.0166855
Source Step = 57.9138%
Source Step = 58.0402%
Source Step = 58.1666%
Source Step = 58.293%
Source Step = 58.4194%
vernier = 0.00625706
Source Step = 58.5648%
Source Step = 58.7544%
Source Step = 58.944%
Source Step = 59.1336%
Source Step = 59.3232%
vernier = 0.00938559
Source Step = 59.5318%
Source Step = 59.6598%
Source Step = 59.7309%
Source Step = 59.802%
Source Step = 59.8731%
Source Step = 59.9442%
vernier = 0.00351959
Source Step = 60.033%
Source Step = 60.1397%
Source Step = 60.2464%
Source Step = 60.353%
Source Step = 60.4597%
vernier = 0.00527939
Source Step = 60.5877%
Source Step = 60.7476%
Source Step = 60.9076%
Source Step = 61.0676%
Source Step = 61.2276%
vernier = 0.00791909
Source Step = 61.3516%
Source Step = 61.4116%
Source Step = 61.4715%
Source Step = 61.5315%
Source Step = 61.5915%
vernier = 0.00296966
Source Step = 61.6545%
Source Step = 61.7445%
Source Step = 61.8345%
Source Step = 61.9245%
Source Step = 62.0145%
Source Step = 62.1045%
vernier = 0.00445449
Source Step = 62.2395%
Source Step = 62.3744%
Source Step = 62.5094%
Source Step = 62.6444%
Source Step = 62.7794%
vernier = 0.00668173
Source Step = 62.8334%
Source Step = 62.884%
Source Step = 62.9346%
Source Step = 62.9852%
Source Step = 63.0359%
vernier = 0.00250565
Source Step = 63.1042%
Source Step = 63.1801%
Source Step = 63.2561%
Source Step = 63.332%
Source Step = 63.4079%
vernier = 0.00375847
Source Step = 63.5066%
Source Step = 63.6205%
Source Step = 63.7344%
Source Step = 63.8483%
Source Step = 63.9622%
vernier = 0.00563771
Source Step = 64.0362%
Source Step = 64.0789%
Source Step = 64.1217%
Source Step = 64.1644%
Source Step = 64.2071%
vernier = 0.00211414
Source Step = 64.2562%
Source Step = 64.3203%
Source Step = 64.3843%
Source Step = 64.4484%
Source Step = 64.5124%
vernier = 0.00317121
Source Step = 64.5829%
Source Step = 64.679%
Source Step = 64.7751%
Source Step = 64.8712%
Source Step = 64.9673%
vernier = 0.00475682
Source Step = 65.0682%
vernier = 0.0011892
Source Step = 65.0898%
Source Step = 65.1259%
Source Step = 65.1619%
Source Step = 65.1979%
Source Step = 65.234%
vernier = 0.00178381
Source Step = 65.2862%
Source Step = 65.3403%
Source Step = 65.3943%
Source Step = 65.4484%
Source Step = 65.5024%
vernier = 0.00267571
Source Step = 65.5781%
Source Step = 65.6592%
Source Step = 65.7403%
Source Step = 65.8214%
Source Step = 65.9025%
vernier = 0.00401357
Source Step = 65.945%
Source Step = 65.9754%
Source Step = 66.0058%
Source Step = 66.0362%
Source Step = 66.0666%
vernier = 0.00150509
Source Step = 66.1047%
Source Step = 66.1503%
Source Step = 66.1959%
Source Step = 66.2415%
Source Step = 66.2871%
vernier = 0.00225763
Source Step = 66.3418%
Source Step = 66.4102%
Source Step = 66.4786%
Source Step = 66.5471%
Source Step = 66.6155%
vernier = 0.00338645
Source Step = 66.6941%
Source Step = 66.7968%
Source Step = 66.8994%
Source Step = 66.961%
Source Step = 66.9866%
Source Step = 67.0123%
Source Step = 67.0379%
Source Step = 67.0636%
vernier = 0.00126992
Source Step = 67.0931%
Source Step = 67.1316%
Source Step = 67.17%
Source Step = 67.2085%
Source Step = 67.247%
vernier = 0.00190488
Source Step = 67.2893%
Source Step = 67.3471%
Source Step = 67.4048%
Source Step = 67.4625%
Source Step = 67.5202%
vernier = 0.00285731
Source Step = 67.5808%
Source Step = 67.6674%
Source Step = 67.754%
Source Step = 67.8406%
Source Step = 67.9272%
Source Step = 68.0138%
vernier = 0.00428597
Source Step = 68.043%
Source Step = 68.0755%
Source Step = 68.1079%
Source Step = 68.1404%
Source Step = 68.1729%
vernier = 0.00160724
Source Step = 68.2183%
Source Step = 68.267%
Source Step = 68.3157%
Source Step = 68.3644%
Source Step = 68.4131%
vernier = 0.00241086
Source Step = 68.4789%
Source Step = 68.5519%
Source Step = 68.625%
Source Step = 68.6981%
Source Step = 68.7711%
vernier = 0.00361629
Source Step = 68.814%
Source Step = 68.8414%
Source Step = 68.8688%
Source Step = 68.8962%
Source Step = 68.9236%
vernier = 0.00135611
Source Step = 68.9565%
Source Step = 68.9976%
Source Step = 69.0387%
Source Step = 69.0798%
Source Step = 69.1209%
vernier = 0.00203416
Source Step = 69.1681%
Source Step = 69.2298%
Source Step = 69.2914%
Source Step = 69.3531%
Source Step = 69.4147%
vernier = 0.00305124
Source Step = 69.4825%
Starting source stepping with srcstepmethod=1
Source Step = 3.0303%
Source Step = 14.3939%
Source Step = 21.9697%
Source Step = 29.5455%
Source Step = 37.1212%
Source Step = 44.697%
vernier = 0.375
Source Step = 54.5455%
Source Step = 65.9091%
Source Step = 77.2727%
Source Step = 88.6364%
Source Step = 100%
vernier = 0.5625
Source Step = 100%
Source Step = 99.1065%
vernier = 0.00878906
Source Step = 99.0599%
Source Step = 99.1265%
Source Step = 99.1931%
Source Step = 99.2597%
Source Step = 99.3263%
Source Step = 99.3928%
Source Step = 99.4594%
Source Step = 99.526%
Source Step = 99.5926%
Source Step = 99.6592%
Source Step = 99.7258%
Source Step = 99.7923%
Source Step = 99.8589%
Source Step = 99.9255%
Source Step = 99.9921%
Source Step = 100%
Source Step = 100%
Source Step = 100%
Source Step = 100%
Source Step = 100%
Source Step = 100%
Source Step = 100%
Source Step = 100%
Source Step = 100%
Source Step = 100%
Source Step = 100%
Source Step = 100%
Source Step = 100%
Source Step = 100%
Source Step = 100%
Source Step = 100%
Source Step = 100%
Source Step = 100%
Source Step = 100%
Source Step = 100%
Source Step = 100%
Source Step = 100%
Source Step = 100%
Source Step = 100%
Source Step = 100%
Source Step = 100%
Source Step = 100%
Source Step = 100%
Source Step = 100%
Source Step = 100%
Source Step = 100%
Source Step = 100%
Source Step = 100%
Source Step = 100%
Source Step = 100%
Source Step = 100%
Source Step = 100%
Source Step = 100%
Source Step = 100%
Source Step = 100%
Source Step = 100%
Source Step = 100%
Source Step = 100%
Source Step = 100%
Source Step = 100%
Source Step = 100%
Source Step = 100%
Source Step = 100%
Source Step = 100%
Source Step = 100%
Source Step = 100%
Source Step = 100%
Source Step = 100%
Source Step = 100%
Source Step = 100%
Source Step = 100%
Source Step = 100%
Source Step = 100%
Source Step = 100%
Source Step = 100%
Source Step = 100%
Source Step = 100%
Source Step = 100%
Source Step = 100%
Source Step = 100%
Source Step = 100%
Source Step = 100%
Source Step = 100%
Source Step = 100%
Source Step = 100%
Source Step = 100%
Source Step = 100%
Source Step = 100%
Source Step = 100%
Source Step = 100%
Source Step = 100%
Source Step = 100%
Source Step = 100%
Source Step = 100%
Source Step = 100%
Source Step = 100%
Source Step = 100%
Source Step = 100%
Source Step = 100%
Source Step = 100%
Source Step = 100%
Source Step = 100%
Source Step = 100%
Source Step = 100%
Source Step = 100%
Source Step = 100%
Source Step = 100%
Source Step = 100%
Source Step = 100%
Source Step = 100%
Source Step = 100%
Source Step = 100%
Source Step = 100%
Source Step = 100%
Source Step = 100%
Source Step = 100%
Source Step = 100%
Source Step = 100%
Source Step = 100%
Source Step = 100%
Source Step = 100%
Source Step = 100%
Source Step = 100%
Source Step = 100%
Source Step = 100%
Source Step = 100%
Source Step = 100%
Source Step = 100%
Source Step = 100%
Source Step = 100%
Source Step = 100%
Source Step = 100%
Source Step = 100%
Source Step = 100%
Source Step = 100%
Source Step = 100%
Source Step = 100%
Source Step = 100%
Source Step = 100%
Source Step = 100%
Source Step = 100%
Source Step = 100%
Source Step = 100%
Source Step = 100%
Source Step = 100%
Source Step = 100%
Source Step = 100%
Source Step = 100%
Source Step = 100%
Source Step = 100%
Source Step = 100%
Source Step = 100%
Source Step = 100%
Source Step = 100%
Source Step = 100%
Source Step = 100%
Source Step = 100%
Source Step = 100%
Source Step = 100%
Source Step = 100%
Source Step = 100%
Source Step = 100%
Source Step = 100%
Source Step = 100%
Source Step = 100%
Source Step = 100%
Source Step = 100%
Source Step = 100%
Source Step = 100%
Source Step = 100%
Source Step = 100%
Source Step = 100%
Source Step = 100%
Source Step = 100%
Source Step = 100%
Source Step = 100%
Source Step = 100%
Source Step = 100%
Source Step = 100%
Source Step = 100%
Source Step = 100%
Source Step = 100%
Source Step = 100%
Source Step = 100%
Source Step = 100%
Source Step = 100%
Source Step = 100%
Source Step = 100%
Source Step = 100%
Source Step = 100%
Source Step = 100%
Source Step = 100%
Source Step = 100%
Source Step = 100%
Source Step = 100%
Source Step = 100%
Source Step = 100%
Source Step = 100%
Source Step = 100%
Source Step = 100%
Source Step = 100%
Source Step = 100%
Source Step = 100%
Source Step = 100%
Source Step = 100%
Source Step = 100%
Source Step = 100%
Source Step = 100%
Source Step = 100%
Source Step = 100%
Source Step = 100%
Source Step = 100%
Source Step = 100%
Source Step = 100%
Source Step = 100%
Source Step = 100%
Source Step = 100%
Source Step = 100%
Source Step = 100%
Source Step = 100%
Source Step = 100%
Source Step = 100%
Source Step = 100%
Source Step = 100%
Source Step = 100%
Source Step = 100%
Source Step = 100%
Source Step = 100%
Source Step = 100%
Source Step = 100%
Source Step = 100%
Source Step = 100%
Source Step = 100%
Source Step = 100%
Source Step = 100%
Source Step = 100%
Source Step = 100%
Source Step = 100%
Source Step = 100%
Source Step = 100%
Source Step = 100%
Source Step = 100%
Source Step = 100%
Source Step = 100%
Source Step = 100%
Source Step = 100%
Source Step = 100%
Source Step = 100%
Source Step = 100%
Source Step = 100%
Source Step = 100%
Source Step = 100%
Source Step = 100%
Source Step = 100%
Source Step = 100%
Source Step = 100%
Source Step = 100%
Source Step = 100%
Source Step = 100%
Source Step = 100%
Source Step = 100%
Source Step = 100%
Source Step = 100%
Source Step = 100%
Source Step = 100%
Source Step = 100%
Source Step = 100%
Source Step = 100%
Source Step = 100%
Source Step = 100%
Source Step = 100%
Source Step = 100%
Source Step = 100%
Source Step = 100%
Source Step = 100%
Source Step = 100%
Source Step = 100%
Source Step = 100%
Source Step = 100%
Source Step = 100%
Source Step = 100%
Source Step = 100%
Source Step = 100%
Source Step = 100%
Source Step = 100%
Source Step = 100%
Source Step = 100%
Source Step = 100%
Source Step = 100%
Source Step = 100%
Source Step = 100%
Source Step = 100%
Source Step = 100%
Source Step = 100%
Source Step = 100%
Source Step = 100%
Source Step = 100%
Source Step = 100%
Source Step = 100%
Source Step = 100%
Source Step = 100%
Source Step = 100%
Source Step = 100%
Source Step = 100%
Source Step = 100%
Source Step = 100%
Source Step = 100%
Source Step = 100%
Source Step = 100%
Source Step = 100%
Source Step = 100%
Source Step = 100%
Source Step = 100%
Source Step = 100%
Source Step = 100%
Source Step = 100%
Source Step = 100%
Source Step = 100%
Source Step = 100%
Source Step = 100%
Source Step = 100%
Source Step = 100%
Source Step = 100%
Source Step = 100%
Source Step = 100%
Source Step = 100%
Source Step = 100%
Source Step = 100%
Source Step = 100%
Source Step = 100%
Source Step = 100%
Source Step = 100%
Source Step = 100%
Source Step = 100%
Source Step = 100%
Source Step = 100%
Source Step = 100%
Source Step = 100%
Source Step = 100%
Source Step = 100%
Source Step = 100%
Source Step = 100%
Source Step = 100%
Source Step = 100%
Source Step = 100%
Source Step = 100%
Source Step = 100%
Source Step = 100%
Source Step = 100%
Source Step = 100%
Source Step = 100%
Source Step = 100%
Source Step = 100%
Source Step = 100%
Source Step = 100%
Source Step = 100%
Source Step = 100%
Source Step = 100%
Source Step = 100%
Source Step = 100%
Source Step = 100%
Source Step = 100%
Source Step = 100%
Source Step = 100%
Source Step = 100%
Source Step = 100%
Source Step = 100%
Source Step = 100%
Source Step = 100%
Source Step = 100%
Source Step = 100%
Source Step = 100%
Source Step = 100%
Source Step = 100%
Source Step = 100%
Source Step = 100%
Source Step = 100%
Source Step = 100%
Source Step = 100%
Source Step = 100%
Source Step = 100%
Source Step = 100%
Source Step = 100%
Source Step = 100%
Source Step = 100%
Source Step = 100%
Source Step = 100%
Source Step = 100%
Source Step = 100%
Source Step = 100%
Source Step = 100%
Source Step = 100%
Source Step = 100%
Source Step = 100%
Source Step = 100%
Source Step = 100%
Source Step = 100%
Source Step = 100%
Source Step = 100%
Source Step = 100%
Source Step = 100%
Source Step = 100%
Source Step = 100%
Source Step = 100%
Source Step = 100%
Source Step = 100%
Source Step = 100%
Source Step = 100%
Source Step = 100%
Source Step = 100%
Source Step = 100%
Source Step = 100%
Source Step = 100%
Source Step = 100%
Source Step = 100%
Source Step = 100%
Source Step = 100%
Source Step = 100%
Source Step = 100%
Source Step = 100%
Source Step = 100%
Source Step = 100%
Source Step = 100%
Source Step = 100%
Source Step = 100%
Source Step = 100%
Source Step = 100%
Source Step = 100%
Source Step = 100%
Source Step = 100%
Source Step = 100%
Source Step = 100%
Source Step = 100%
Source Step = 100%
Source Step = 100%
Source Step = 100%
Source Step = 100%
Source Step = 100%
Source Step = 100%
Source Step = 100%
Source Step = 100%
Source Step = 100%
Source Step = 100%
Source Step = 100%
Source Step = 100%
Source Step = 100%
Source Step = 100%
Source Step = 100%
Source Step = 100%
Source Step = 100%
Source Step = 100%
Source Step = 100%
Source Step = 100%
Source Step = 100%
Source Step = 100%
Source Step = 100%
Source Step = 100%
Source Step = 100%
Source Step = 100%
Source Step = 100%
Source Step = 100%
Source Step = 100%
Source Step = 100%
Source Step = 100%
Source Step = 100%
Source Step = 100%
Source Step = 100%
Source Step = 100%
Source Step = 100%
Source Step = 100%
Source Step = 100%
Source Step = 100%
Source Step = 100%
Source Step = 100%
Source Step = 100%
Source Step = 100%
Source Step = 100%
Source Step = 100%
Source Step = 100%
Source Step = 100%
Source Step = 100%
Source Step = 100%
Source Step = 100%
Source Step = 100%
Source Step = 100%
Source Step = 100%
Source Step = 100%
Source Step = 100%
Source Step = 100%
Source Step = 100%
Source Step = 100%
Source Step = 100%
Source Step = 100%
Source Step = 100%
Source Step = 100%
Source Step = 100%
Source Step = 100%
Source Step = 100%
Source Step = 100%
Source Step = 100%
Source Step = 100%
Source Step = 100%
Source Step = 100%
Source Step = 100%
Source Step = 100%
Source Step = 100%
Source Step = 100%
Source Step = 100%
Source Step = 100%
Source Step = 100%
Source Step = 100%
Source Step = 100%
Source Step = 100%
Source Step = 100%
Source Step = 100%
Source Step = 100%
Source Step = 100%
Source Step = 100%
Source Step = 100%
Source Step = 100%
Source Step = 100%
Source Step = 100%
Source Step = 100%
Source Step = 100%
Source Step = 100%
Source Step = 100%
Source Step = 100%
Source Step = 100%
Source Step = 100%
Source Step = 100%
Source Step = 100%
Source Step = 100%